
     RDKit          3D

 30 35  0  0  0  0  0  0  0  0999 V2000
   -2.2640    1.9190   -4.3160 C   0  0  0  0  0  0  0  0  0  0  0  0
   -2.8650    1.7330   -3.1050 C   0  0  1  0  0  0  0  0  0  0  0  0
   -0.9070    1.8070   -4.6610 C   0  0  0  0  0  0  0  0  0  0  0  0
    4.1830   -0.1370   -1.6080 C   0  0  0  0  0  0  0  0  0  0  0  0
    4.6820   -1.2470    0.2130 C   0  0  0  0  0  0  0  0  0  0  0  0
   -3.2540    2.6730   -6.5360 C   0  0  0  0  0  0  0  0  0  0  0  0
    4.1160    0.7270   -3.8570 C   0  0  0  0  0  0  0  0  0  0  0  0
    3.4520    1.2440   -4.9340 C   0  0  0  0  0  0  0  0  0  0  0  0
    4.6990   -2.0370    1.3310 C   0  0  0  0  0  0  0  0  0  0  0  0
    7.0400   -1.5160    1.6470 C   0  0  0  0  0  0  0  0  0  0  0  0
   -2.1030   -0.4110    0.4530 C   0  0  1  0  0  0  0  0  0  0  0  0
   -2.1700    1.4460   -1.8940 C   0  0  1  0  0  0  0  0  0  0  0  0
   -2.2680    0.3530   -1.2600 N   0  0  2  0  0  0  0  0  0  0  0  0
   -1.2320    2.1240   -1.6290 O   0  0  0  0  0  0  0  0  0  0  0  0
    5.4740    0.0930   -1.3530 N   0  0  0  0  0  0  0  0  0  0  0  0
   -3.2810    2.2620   -5.1700 N   0  0  0  0  0  0  0  0  0  0  0  0
   -4.4580    2.2660   -4.5250 N   0  0  0  0  0  0  0  0  0  0  0  0
    3.6250   -0.9450   -0.6910 O   0  0  0  0  0  0  0  0  0  0  0  0
   -4.2370    1.9560   -3.2600 C   0  0  0  0  0  0  0  0  0  0  0  0
   -0.0280    1.4330   -3.7230 N   0  0  0  0  0  0  0  0  0  0  0  0
    5.7790   -0.5940   -0.2110 C   0  0  0  0  0  0  0  0  0  0  0  0
    3.3820    0.4240   -2.7360 C   0  0  0  0  0  0  0  0  0  0  0  0
   -0.4920    2.0220   -5.7700 O   0  0  0  0  0  0  0  0  0  0  0  0
    1.3580    1.2040   -3.7910 C   0  0  0  0  0  0  0  0  0  0  0  0
    2.0270    0.6620   -2.6750 C   0  0  0  0  0  0  0  0  0  0  0  0
    6.9920   -0.7140    0.5040 C   0  0  0  0  0  0  0  0  0  0  0  0
    2.0850    1.4900   -4.9260 C   0  0  0  0  0  0  0  0  0  0  0  0
    5.8970   -2.1740    2.0720 C   0  0  0  0  0  0  0  0  0  0  0  0
   -3.3450   -0.1750   -0.6910 C   0  0  0  0  0  0  0  0  0  0  0  0
   -1.2820   -0.4480   -0.6250 C   0  0  0  0  0  0  0  0  0  0  0  0
  2  1  1  0
  3  1  1  0
  8  7  1  0
  9  5  1  0
 12  2  1  0
 13 12  1  0
 13 11  1  0
 12 14  1  6
 15  4  1  0
 16  6  1  0
 16  1  1  0
 17 16  1  0
 18  5  1  0
 18  4  1  0
 19 17  1  0
  2 19  1  1
 20  3  1  0
 21  5  1  0
 21 15  1  0
 22  7  1  0
 22  4  1  0
 23  3  1  0
 24 20  1  0
 25 24  1  0
 25 22  1  0
 26 21  1  0
 26 10  1  0
 27 24  1  0
 27  8  1  0
 28  9  1  0
 28 10  1  0
 13 29  1  6
 11 29  1  6
 30 13  1  0
 30 11  1  0
M  CHG  1  13   1
M  END
