
     RDKit          3D

 31 35  0  0  0  0  0  0  0  0999 V2000
   -9.5400    1.9100   -0.1570 N   0  0  0  0  0  0  0  0  0  0  0  0
   -9.7200    1.9980   -1.5090 C   0  0  1  0  0  0  0  0  0  0  0  0
  -10.2740    2.9320    0.4270 C   0  0  0  0  0  0  0  0  0  0  0  0
   -5.0210   -0.6870   -2.2970 C   0  0  0  0  0  0  0  0  0  0  0  0
   -3.1620   -2.4590   -0.6570 N   0  0  0  0  0  0  0  0  0  0  0  0
  -11.6300    4.7650   -0.2420 C   0  0  0  0  0  0  0  0  0  0  0  0
   -7.6750    1.0220   -2.3870 C   0  0  0  0  0  0  0  0  0  0  0  0
   -2.4740   -3.3170    0.1280 C   0  0  0  0  0  0  0  0  0  0  0  0
  -11.1560    4.4020    2.1820 C   0  0  0  0  0  0  0  0  0  0  0  0
   -0.3570    0.7350   -2.7050 C   0  0  0  0  0  0  0  0  0  0  0  0
   -1.1400   -3.1830    0.3600 C   0  0  0  0  0  0  0  0  0  0  0  0
   -3.5800   -0.6090   -2.1600 C   0  0  0  0  0  0  0  0  0  0  0  0
   -2.7700   -1.4410   -1.3840 C   0  0  0  0  0  0  0  0  0  0  0  0
   -1.4870   -0.9890   -1.5310 N   0  0  0  0  0  0  0  0  0  0  0  0
  -10.8620    3.6470   -0.5250 N   0  0  0  0  0  0  0  0  0  0  0  0
  -10.5620    3.1060   -1.7380 C   0  0  0  0  0  0  0  0  0  0  0  0
   -1.5200    0.0310   -2.3410 N   0  0  0  0  0  0  0  0  0  0  0  0
   -2.7430    0.3210   -2.7280 C   0  0  0  0  0  0  0  0  0  0  0  0
   -5.5890    0.1050   -3.1960 N   0  0  0  0  0  0  0  0  0  0  0  0
   -8.9860    1.1800   -2.5260 C   0  0  0  0  0  0  0  0  0  0  0  0
  -10.3620    3.2310    1.8210 C   0  0  0  0  0  0  0  0  0  0  0  0
   -5.6150   -1.5130   -1.6140 O   0  0  0  0  0  0  0  0  0  0  0  0
   -6.9670    0.2560   -3.3400 C   0  0  0  0  0  0  0  0  0  0  0  0
   -2.5870   -5.2940    1.4340 N   0  0  0  0  0  0  0  0  0  0  0  0
   -0.5170   -4.1010    1.1370 N   0  0  0  0  0  0  0  0  0  0  0  0
  -11.7930    5.1790    1.1370 C   0  0  0  0  0  0  0  0  0  0  0  0
   -1.2700   -5.1140    1.6460 C   0  0  0  0  0  0  0  0  0  0  0  0
   -3.1740   -4.3960    0.6860 C   0  0  0  0  0  0  0  0  0  0  0  0
   -9.7130    0.6090   -3.5910 C   0  0  0  0  0  0  0  0  0  0  0  0
   -8.9840   -0.1930   -4.5820 C   0  0  0  0  0  0  0  0  0  0  0  0
   -7.6060   -0.3500   -4.4660 C   0  0  0  0  0  0  0  0  0  0  0  0
  2  1  1  0
  3  1  1  0
  8  5  1  0
 11  8  1  0
 12  4  1  0
 13 12  1  0
 13  5  1  0
 14 13  1  0
 15  6  1  0
 15  3  1  0
 16 15  1  0
 16  2  1  0
 17 14  1  0
 17 10  1  0
 18 17  1  0
 18 12  1  0
 19  4  1  0
 20  7  1  0
  2 20  1  6
 21  9  1  0
 21  3  1  0
 22  4  1  0
 23 19  1  0
 23  7  1  0
 25 11  1  0
 26  9  1  0
 26  6  1  0
 27 25  1  0
 27 24  1  0
 28 24  1  0
 28  8  1  0
 29 20  1  0
 30 29  1  0
 31 30  1  0
 31 23  1  0
M  END
