
     RDKit          3D

 26 29  0  0  0  0  0  0  0  0999 V2000
   -2.4630   -6.8140   -4.9590 C   0  0  0  0  0  0  0  0  0  0  0  0
   -1.5400   -7.6950   -4.4470 C   0  0  0  0  0  0  0  0  0  0  0  0
   -0.5770   -5.9380   -3.2220 C   0  0  0  0  0  0  0  0  0  0  0  0
    4.5700   -0.6030    2.2700 C   0  0  0  0  0  0  0  0  0  0  0  0
    3.1880   -0.7720    2.5550 C   0  0  0  0  0  0  0  0  0  0  0  0
    4.1190   -0.6350   -0.0640 C   0  0  0  0  0  0  0  0  0  0  0  0
    2.7360   -0.7870    0.2380 C   0  0  0  0  0  0  0  0  0  0  0  0
    0.6170   -1.0930    0.2940 C   0  0  1  0  0  0  0  0  0  0  0  0
    4.6010   -0.5570   -1.4590 C   0  0  0  0  0  0  0  0  0  0  0  0
    2.6900   -0.8540    3.9330 C   0  0  0  0  0  0  0  0  0  0  0  0
   -0.8290   -1.4080   -0.0580 C   0  0  0  0  0  0  0  0  0  0  0  0
   -1.6780    0.4230   -1.3520 C   0  0  0  0  0  0  0  0  0  0  0  0
   -1.2790   -1.6050   -3.6030 N   0  0  0  0  0  0  0  0  0  0  0  0
   -1.3310   -2.7160   -4.2620 N   0  0  0  0  0  0  0  0  0  0  0  0
   -1.4010   -3.6770   -3.4010 C   0  0  0  0  0  0  0  0  0  0  0  0
   -1.3600   -3.1890   -2.1990 N   0  0  0  0  0  0  0  0  0  0  0  0
   -1.3180   -1.8380   -2.3100 C   0  0  0  0  0  0  0  0  0  0  0  0
   -1.1290   -0.3690   -4.2760 C   0  0  0  0  0  0  0  0  0  0  0  0
   -1.4640   -5.0290   -3.7350 C   0  0  0  0  0  0  0  0  0  0  0  0
   -1.2750   -0.9110   -1.2820 N   0  0  0  0  0  0  0  0  0  0  0  0
   -2.4190   -5.4600   -4.6550 C   0  0  0  0  0  0  0  0  0  0  0  0
   -0.5850   -7.2500   -3.5900 C   0  0  0  0  0  0  0  0  0  0  0  0
    4.9880   -0.5600    0.9480 N   0  0  0  0  0  0  0  0  0  0  0  0
    2.3150   -0.8550    1.4710 N   0  0  0  0  0  0  0  0  0  0  0  0
    0.9890   -1.0390    1.5310 N   0  0  0  0  0  0  0  0  0  0  0  0
    1.6540   -0.9360   -0.5730 N   0  0  0  0  0  0  0  0  0  0  0  0
  2  1  1  0
  5  4  1  0
  7  6  1  0
  9  6  1  0
 10  5  1  0
  8 11  1  6
 14 13  1  0
 15 14  1  0
 16 15  1  0
 17 16  1  0
 17 13  1  0
 18 13  1  0
 19  3  1  0
 19 15  1  0
 20 17  1  0
 20 12  1  0
 20 11  1  0
 21  1  1  0
 21 19  1  0
 22  3  1  0
 22  2  1  0
 23  6  1  0
 23  4  1  0
 24  7  1  0
 24  5  1  0
 25 24  1  0
 25  8  1  0
 26  8  1  0
 26  7  1  0
M  END
