
     RDKit          3D

 33 37  0  0  0  0  0  0  0  0999 V2000
    0.1240    0.2750    0.3110 C   0  0  2  0  0  0  0  0  0  0  0  0
   -0.9190   -2.4710   -1.7970 C   0  0  0  0  0  0  0  0  0  0  0  0
    0.1040   -0.5740    4.0010 C   0  0  2  0  0  0  0  0  0  0  0  0
    0.3270   -1.9720    4.5520 C   0  0  0  0  0  0  0  0  0  0  0  0
   -1.7400   -1.2440    5.2990 C   0  0  0  0  0  0  0  0  0  0  0  0
   -1.1870   -0.0550    4.6260 C   0  0  0  0  0  0  0  0  0  0  0  0
    2.0860    3.4520    4.2370 C   0  0  0  0  0  0  0  0  0  0  0  0
    2.0820    5.0960    5.8210 C   0  0  0  0  0  0  0  0  0  0  0  0
    1.5770    6.0060    4.9300 C   0  0  0  0  0  0  0  0  0  0  0  0
    1.3690    5.6390    3.6180 C   0  0  0  0  0  0  0  0  0  0  0  0
    1.2940    7.3510    5.4590 C   0  0  0  0  0  0  0  0  0  0  0  0
    0.2700    0.3530    1.7070 C   0  0  0  0  0  0  0  0  0  0  0  0
   -2.7890   -3.3260   -0.2410 C   0  0  2  0  0  0  0  0  0  0  0  0
   -4.0060   -3.0200   -0.7990 C   0  0  0  0  0  0  0  0  0  0  0  0
   -2.6970   -3.9770    1.0910 C   0  0  0  0  0  0  0  0  0  0  0  0
    0.8590    9.6780    5.0050 C   0  0  0  0  0  0  0  0  0  0  0  0
    0.9800    2.5650    1.5190 C   0  0  0  0  0  0  0  0  0  0  0  0
    0.4280    1.3950   -0.4520 C   0  0  0  0  0  0  0  0  0  0  0  0
    1.3770    3.8300    1.9060 C   0  0  0  0  0  0  0  0  0  0  0  0
    1.4900    4.5310    0.6930 C   0  0  0  0  0  0  0  0  0  0  0  0
   -0.3890   -0.8770   -0.3240 C   0  0  2  0  0  0  0  0  0  0  0  0
    1.6110    4.3070    3.2500 C   0  0  0  0  0  0  0  0  0  0  0  0
   -0.1180   -1.3300   -1.5940 C   0  0  0  0  0  0  0  0  0  0  0  0
    0.7160    1.4950    2.3410 N   0  0  0  0  0  0  0  0  0  0  0  0
    0.8550    2.5340    0.1450 N   0  0  0  0  0  0  0  0  0  0  0  0
    1.2090    3.7200   -0.3680 N   0  0  0  0  0  0  0  0  0  0  0  0
   -1.6590   -2.5640   -0.6270 N   0  0  0  0  0  0  0  0  0  0  0  0
   -1.3030   -1.6140    0.2500 N   0  0  0  0  0  0  0  0  0  0  0  0
   -0.0390   -0.6790    2.5360 N   0  0  0  0  0  0  0  0  0  0  0  0
    2.3450    3.8470    5.4570 N   0  0  0  0  0  0  0  0  0  0  0  0
    1.1050    8.3050    4.6200 N   0  0  0  0  0  0  0  0  0  0  0  0
   -0.9110   -2.3760    5.0440 O   0  0  0  0  0  0  0  0  0  0  0  0
    1.2910    7.5620    6.6320 O   0  0  0  0  0  0  0  0  0  0  0  0
  4  3  1  0
  6  5  1  0
  6  3  1  0
  9  8  1  0
 10  9  1  0
 11  9  1  0
 12  1  1  0
 13 14  1  1
 15 13  1  0
  1 18  1  1
 19 17  1  0
 20 19  1  0
 21  1  1  0
 22 19  1  0
 22  7  1  0
 22 10  1  0
 21 23  1  6
 23  2  1  0
 24 17  1  0
 24 12  1  0
 25 18  1  0
 25 17  1  0
 26 25  1  0
 26 20  1  0
 27 13  1  0
 27  2  1  0
 28 27  1  0
 28 21  1  0
 29 12  1  0
  3 29  1  6
 30  7  1  0
 30  8  1  0
 31 16  1  0
 31 11  1  0
 32  5  1  0
 32  4  1  0
 33 11  1  0
M  END
