
     RDKit          3D

 34 37  0  0  0  0  0  0  0  0999 V2000
    6.4610    4.5640   -3.7310 C   0  0  1  0  0  0  0  0  0  0  0  0
    5.9050    3.4390   -4.2160 C   0  0  0  0  0  0  0  0  0  0  0  0
    6.0120    5.6900   -3.2020 C   0  0  1  0  0  0  0  0  0  0  0  0
    4.5160    3.3370   -4.1330 C   0  0  0  0  0  0  0  0  0  0  0  0
   -2.1310    3.6440   -4.2080 C   0  0  0  0  0  0  0  0  0  0  0  0
   -0.9190    3.5260   -4.8160 C   0  0  0  0  0  0  0  0  0  0  0  0
   -1.3570    4.2100   -2.1150 C   0  0  0  0  0  0  0  0  0  0  0  0
    5.1120    5.5200   -3.1480 C   0  0  1  0  0  0  0  0  0  0  0  0
    4.0590    4.4510   -3.8110 C   0  0  0  0  0  0  0  0  0  0  0  0
   -2.4070    3.9990   -2.8870 C   0  0  0  0  0  0  0  0  0  0  0  0
   -0.0890    3.4380   -4.1740 C   0  0  2  0  0  0  0  0  0  0  0  0
   -0.4000    3.9530   -2.5600 C   0  0  2  0  0  0  0  0  0  0  0  0
    4.8690    6.6440   -2.1410 C   0  0  0  0  0  0  0  0  0  0  0  0
    2.5650    3.1470   -3.6710 C   0  0  0  0  0  0  0  0  0  0  0  0
   -5.6930    1.0900   -3.2010 C   0  0  0  0  0  0  0  0  0  0  0  0
   -4.6360    1.9310   -2.6830 C   0  0  0  0  0  0  0  0  0  0  0  0
   -6.8510    1.6200   -3.7640 C   0  0  0  0  0  0  0  0  0  0  0  0
   -6.9910    3.0170   -3.8360 C   0  0  0  0  0  0  0  0  0  0  0  0
   -5.9820    3.7820   -3.2670 C   0  0  1  0  0  0  0  0  0  0  0  0
   -7.4670    5.0760   -4.1210 C   0  0  0  0  0  0  0  0  0  0  0  0
   -7.9670    0.8680   -4.2850 C   0  0  0  0  0  0  0  0  0  0  0  0
   -9.0040    7.0230   -6.6830 C   0  0  0  0  0  0  0  0  0  0  0  0
   -3.8000    4.1920   -2.2910 C   0  0  0  0  0  0  0  0  0  0  0  0
   -8.0240    6.2390   -4.6790 C   0  0  0  0  0  0  0  0  0  0  0  0
   -9.0340    6.1260   -5.5950 C   0  0  0  0  0  0  0  0  0  0  0  0
    1.3630    3.2190   -4.7910 N   0  0  0  0  0  0  0  0  0  0  0  0
    4.7970    8.6720   -2.9110 N   0  0  0  0  0  0  0  0  0  0  0  0
    3.8550    9.4640   -2.3850 N   0  0  0  0  0  0  0  0  0  0  0  0
    2.7820    9.0820   -1.7780 N   0  0  0  0  0  0  0  0  0  0  0  0
   -7.9230    3.8350   -4.3650 N   0  0  0  0  0  0  0  0  0  0  0  0
   -6.4220    5.1210   -3.2590 N   0  0  0  0  0  0  0  0  0  0  0  0
    3.7190    7.0470   -1.5660 N   0  0  0  0  0  0  0  0  0  0  0  0
   -4.8320    3.3160   -2.7410 N   0  0  0  0  0  0  0  0  0  0  0  0
    0.9450    3.9440   -1.2140 S   0  0  0  0  0  0  0  0  0  0  0  0
  1  2  1  6
  3  1  1  0
  4  2  1  0
  6  5  1  0
  8  1  1  0
  8  3  1  0
  9  4  1  0
  8  9  1  6
 10  7  1  0
 10  5  1  0
 11  6  1  0
 12 11  1  0
 12  7  1  0
 13  8  1  0
  3 13  1  1
 16 15  1  0
 17 15  1  0
 18 17  1  0
 19 18  1  0
 21 17  1  0
 23 10  1  0
 24 20  1  0
 25 22  1  0
 25 24  1  0
 26 14  1  0
 11 26  1  6
 28 27  1  0
 29 28  1  0
 30 20  1  0
 30 18  1  0
 31 20  1  0
 19 31  1  1
 32 13  1  0
 33 19  1  0
 33 23  1  0
 33 16  1  0
 12 34  1  1
M  END
