
     RDKit          3D

 31 33  0  0  0  0  0  0  0  0999 V2000
    3.4760   -4.6950    4.5530 C   0  0  0  0  0  0  0  0  0  0  0  0
    4.2140   -5.3840    5.3670 N   0  0  0  0  0  0  0  0  0  0  0  0
    5.1940   -6.1950    4.8690 C   0  0  0  0  0  0  0  0  0  0  0  0
    5.4100   -6.3260    3.5170 N   0  0  0  0  0  0  0  0  0  0  0  0
    4.6140   -5.5880    2.6590 C   0  0  0  0  0  0  0  0  0  0  0  0
    3.6380   -4.7310    3.1700 C   0  0  0  0  0  0  0  0  0  0  0  0
    6.1160   -6.9710    5.8300 C   0  0  1  0  0  0  0  0  0  0  0  0
    2.8570   -4.0010    2.3370 N   0  0  0  0  0  0  0  0  0  0  0  0
    4.8920   -5.7800    1.2440 C   0  0  0  0  0  0  0  0  0  0  0  0
    4.2740   -5.1100    0.4230 O   0  0  0  0  0  0  0  0  0  0  0  0
    7.2700   -6.0270    6.2870 C   0  0  0  0  0  0  0  0  0  0  0  0
    5.3320   -7.4510    7.0040 C   0  0  0  0  0  0  0  0  0  0  0  0
    6.7940   -8.1360    5.1350 C   0  0  0  0  0  0  0  0  0  0  0  0
    2.0240   -2.9720    2.5600 C   0  0  0  0  0  0  0  0  0  0  0  0
    1.5920   -2.5650    3.7990 C   0  0  0  0  0  0  0  0  0  0  0  0
    0.7350   -1.5340    3.9760 N   0  0  0  0  0  0  0  0  0  0  0  0
    0.3250   -0.8630    2.8810 C   0  0  0  0  0  0  0  0  0  0  0  0
    0.7460   -1.2150    1.6360 N   0  0  0  0  0  0  0  0  0  0  0  0
    1.5440   -2.2340    1.4650 C   0  0  0  0  0  0  0  0  0  0  0  0
    5.7830   -6.7330    0.9460 N   0  0  0  0  0  0  0  0  0  0  0  0
    6.2220   -7.0180   -0.3590 C   0  0  2  0  0  0  0  0  0  0  0  0
    6.2580   -8.3290   -0.7950 C   0  0  0  0  0  0  0  0  0  0  0  0
    6.7280   -8.6100   -2.0790 C   0  0  2  0  0  0  0  0  0  0  0  0
    7.1640   -7.6200   -2.9230 C   0  0  0  0  0  0  0  0  0  0  0  0
    7.1650   -6.3510   -2.4320 C   0  0  0  0  0  0  0  0  0  0  0  0
    6.6850   -6.0050   -1.1760 C   0  0  0  0  0  0  0  0  0  0  0  0
    6.7280   -9.8410   -2.6460 O   0  0  0  0  0  0  0  0  0  0  0  0
    7.4610  -10.8540   -2.1530 C   0  0  1  0  0  0  0  0  0  0  0  0
    7.7650  -11.7760   -3.0860 F   0  0  0  0  0  0  0  0  0  0  0  0
    8.6730  -10.4290   -1.6530 F   0  0  0  0  0  0  0  0  0  0  0  0
    6.4760  -11.3630   -1.3200 F   0  0  0  0  0  0  0  0  0  0  0  0
  2  1  1  0
  3  2  1  0
  4  3  1  0
  5  4  1  0
  6  5  1  0
  6  1  1  0
  7  3  1  0
  8  6  1  0
  9  5  1  0
 10  9  1  0
  7 11  1  1
 12  7  1  0
 13  7  1  0
 14  8  1  0
 15 14  1  0
 16 15  1  0
 17 16  1  0
 18 17  1  0
 19 18  1  0
 19 14  1  0
 20  9  1  0
 21 20  1  1
 22 21  1  0
 23 22  1  0
 24 23  1  0
 25 24  1  0
 26 25  1  0
 26 21  1  0
 23 27  1  6
 28 27  1  0
 28 29  1  6
 30 28  1  0
 31 28  1  0
M  END
