
     RDKit          3D

 29 32  0  0  0  0  0  0  0  0999 V2000
   -1.7490    0.3400   -6.1320 C   0  0  0  0  0  0  0  0  0  0  0  0
   -2.1250   -0.9480   -6.5760 C   0  0  0  0  0  0  0  0  0  0  0  0
   -2.7930   -0.7480   -7.7480 C   0  0  0  0  0  0  0  0  0  0  0  0
    0.3410    0.0010   -1.7050 C   0  0  0  0  0  0  0  0  0  0  0  0
   -0.0090   -2.0890   -0.3950 C   0  0  1  0  0  0  0  0  0  0  0  0
    1.1090    0.6610   -0.7580 C   0  0  0  0  0  0  0  0  0  0  0  0
    0.2650   -3.7000    1.7210 C   0  0  0  0  0  0  0  0  0  0  0  0
    1.2760    2.5360   -2.1830 C   0  0  0  0  0  0  0  0  0  0  0  0
    1.5950    1.9400   -0.9970 C   0  0  0  0  0  0  0  0  0  0  0  0
   -3.3750   -1.8980   -8.5340 C   0  0  0  0  0  0  0  0  0  0  0  0
   -0.1030   -1.5830    0.8840 C   0  0  0  0  0  0  0  0  0  0  0  0
    0.1520   -3.4480   -0.5460 C   0  0  0  0  0  0  0  0  0  0  0  0
   -2.1720    2.6260   -7.1310 C   0  0  0  0  0  0  0  0  0  0  0  0
   -1.2250    3.3730   -6.4940 C   0  0  0  0  0  0  0  0  0  0  0  0
   -1.1820    4.7400   -6.5450 C   0  0  0  0  0  0  0  0  0  0  0  0
   -2.1290    5.4140   -7.2780 C   0  0  0  0  0  0  0  0  0  0  0  0
   -3.1390    4.6980   -7.9170 C   0  0  0  0  0  0  0  0  0  0  0  0
   -3.1350    3.3190   -7.8710 C   0  0  0  0  0  0  0  0  0  0  0  0
   -2.8730    0.4990   -8.0110 N   0  0  0  0  0  0  0  0  0  0  0  0
    0.0650    0.6400   -2.9030 C   0  0  0  0  0  0  0  0  0  0  0  0
   -2.2400    1.1690   -7.0600 N   0  0  0  0  0  0  0  0  0  0  0  0
   -0.7430    0.0000   -3.9740 C   0  0  0  0  0  0  0  0  0  0  0  0
   -1.0270    0.7390   -5.0520 N   0  0  0  0  0  0  0  0  0  0  0  0
    0.5150    1.8600   -3.1200 N   0  0  0  0  0  0  0  0  0  0  0  0
   -0.1610   -1.2630   -1.5260 N   0  0  0  0  0  0  0  0  0  0  0  0
   -1.1450   -1.1540   -3.8980 O   0  0  0  0  0  0  0  0  0  0  0  0
    0.0590   -2.3590    1.9440 N   0  0  0  0  0  0  0  0  0  0  0  0
    0.3320   -4.2430    0.4600 N   0  0  0  0  0  0  0  0  0  0  0  0
    1.7880    3.9060   -2.4540 C   0  0  0  0  0  0  0  0  0  0  0  0
  2  1  1  0
  3  2  1  0
  6  4  1  0
  9  8  1  0
  9  6  1  0
 10  3  1  0
 11  5  1  0
 12  5  1  0
 14 13  1  0
 15 14  1  0
 16 15  1  0
 17 16  1  0
 18 17  1  0
 18 13  1  0
 19  3  1  0
 20  4  1  0
 21 19  1  0
 21 13  1  0
 21  1  1  0
 22 20  1  0
 23  1  1  0
 23 22  1  0
 24 20  1  0
 24  8  1  0
  5 25  1  6
 25  4  1  0
 26 22  1  0
 27 11  1  0
 27  7  1  0
 28 12  1  0
 28  7  1  0
 29  8  1  0
M  END
