
     RDKit          3D

 15 15  0  0  0  0  0  0  0  0999 V2000
    0.1050    4.4830   -5.6010 C   0  0  0  0  0  0  0  0  0  0  0  0
    0.3870    5.3010   -4.4370 C   0  0  2  0  0  0  0  0  0  0  0  0
    1.5930    5.7270   -4.5470 O   0  0  0  0  0  0  0  0  0  0  0  0
    0.0800    4.5820   -3.1390 C   0  0  0  0  0  0  0  0  0  0  0  0
   -1.1720    3.9010   -2.9660 C   0  0  0  0  0  0  0  0  0  0  0  0
   -1.4420    3.2570   -1.7460 C   0  0  1  0  0  0  0  0  0  0  0  0
   -0.5290    3.2780   -0.7100 C   0  0  0  0  0  0  0  0  0  0  0  0
    0.7290    3.9630   -0.8690 C   0  0  0  0  0  0  0  0  0  0  0  0
    1.0180    4.6120   -2.1010 C   0  0  0  0  0  0  0  0  0  0  0  0
    2.1580    5.2590   -2.2880 O   0  0  0  0  0  0  0  0  0  0  0  0
   -0.7940    2.6770    0.4100 O   0  0  0  0  0  0  0  0  0  0  0  0
   -2.7740    2.5870   -1.5180 C   0  0  2  0  0  0  0  0  0  0  0  0
   -2.6880    1.5380   -0.8010 O   0  0  0  0  0  0  0  0  0  0  0  0
   -3.6440    2.5400   -2.6400 C   0  0  0  0  0  0  0  0  0  0  0  0
   -2.0450    3.9260   -3.8930 O   0  0  0  0  0  0  0  0  0  0  0  0
  2  1  1  6
  3  2  1  0
  4  2  1  0
  5  4  1  0
  6  5  1  1
  7  6  1  0
  8  7  1  0
  9  8  1  0
  9  4  1  0
 10  9  1  0
 11  7  1  0
 12  6  1  0
 13 12  1  0
 12 14  1  6
 15  5  1  0
M  END
