
     RDKit          3D

 29 33  0  0  0  0  0  0  0  0999 V2000
  -12.3280   -1.7330    9.3200 C   0  0  0  0  0  0  0  0  0  0  0  0
  -12.9070   -1.1890   11.6000 C   0  0  0  0  0  0  0  0  0  0  0  0
  -10.6140   -1.4330   11.0170 C   0  0  0  0  0  0  0  0  0  0  0  0
   -4.0230   -3.8570    6.3780 C   0  0  0  0  0  0  0  0  0  0  0  0
   -2.5660   -3.6790    6.1090 C   0  0  0  0  0  0  0  0  0  0  0  0
   -1.6770   -4.3420    6.9470 C   0  0  0  0  0  0  0  0  0  0  0  0
   -0.3570   -4.1740    6.7240 C   0  0  0  0  0  0  0  0  0  0  0  0
   -0.6950   -2.7560    4.9550 C   0  0  0  0  0  0  0  0  0  0  0  0
   -2.0800   -2.8590    5.1100 C   0  0  0  0  0  0  0  0  0  0  0  0
    1.0190   -1.2070    4.0700 C   0  0  2  0  0  0  0  0  0  0  0  0
    0.9620    0.0740    3.2730 C   0  0  0  0  0  0  0  0  0  0  0  0
   -6.2710   -2.8760    6.2460 C   0  0  2  0  0  0  0  0  0  0  0  0
   -7.1090   -2.2910    5.2200 C   0  0  0  0  0  0  0  0  0  0  0  0
   -8.5040   -2.1640    5.5080 C   0  0  0  0  0  0  0  0  0  0  0  0
   -6.6270   -2.6530    7.6150 C   0  0  0  0  0  0  0  0  0  0  0  0
   -8.0150   -2.3800    7.8820 C   0  0  2  0  0  0  0  0  0  0  0  0
   -8.8870   -2.1050    6.8960 N   0  0  0  0  0  0  0  0  0  0  0  0
   -8.6680   -2.2750    9.0490 N   0  0  0  0  0  0  0  0  0  0  0  0
  -10.9700   -1.7260    9.6890 C   0  0  0  0  0  0  0  0  0  0  0  0
   -9.9410   -1.9800    8.7260 C   0  0  1  0  0  0  0  0  0  0  0  0
  -10.1150   -1.8900    7.4140 N   0  0  0  0  0  0  0  0  0  0  0  0
  -13.2980   -1.4970   10.3050 C   0  0  0  0  0  0  0  0  0  0  0  0
  -11.5600   -1.1680   11.9540 C   0  0  0  0  0  0  0  0  0  0  0  0
   -4.8090   -2.8620    5.9370 N   0  0  0  0  0  0  0  0  0  0  0  0
   -4.4430   -4.8410    6.9620 O   0  0  0  0  0  0  0  0  0  0  0  0
    0.1690   -3.3850    5.7220 N   0  0  0  0  0  0  0  0  0  0  0  0
    0.7840   -4.9940    7.7500 Cl  0  0  0  0  0  0  0  0  0  0  0  0
   -0.2030   -1.9840    3.9270 N   0  0  0  0  0  0  0  0  0  0  0  0
    1.0720   -0.0370    4.8570 C   0  0  0  0  0  0  0  0  0  0  0  0
  5  4  1  0
  6  5  1  0
  7  6  1  0
  9  8  1  0
  9  5  1  0
 11 10  1  0
 13 12  1  0
 14 13  1  0
 15 12  1  0
 16 15  1  1
 17 16  1  0
 17 14  1  0
 18 16  1  0
 19  1  1  0
 19  3  1  0
 20 19  1  1
 20 18  1  0
 21 20  1  0
 21 17  1  0
 22  1  1  0
 22  2  1  0
 23  2  1  0
 23  3  1  0
 12 24  1  1
 24  4  1  0
 25  4  1  0
 26  8  1  0
 26  7  1  0
 27  7  1  0
 10 28  1  1
 28  8  1  0
 29 11  1  0
 29 10  1  0
M  END
