
     RDKit          3D

 31 34  0  0  0  0  0  0  0  0999 V2000
   -1.6430    2.4660   -3.2040 C   0  0  1  0  0  0  0  0  0  0  0  0
   -0.7420    3.9850   -0.2920 C   0  0  0  0  0  0  0  0  0  0  0  0
    0.6000    1.6830    0.5080 C   0  0  0  0  0  0  0  0  0  0  0  0
    1.9460    5.2340    3.3390 O   0  0  0  0  0  0  0  0  0  0  0  0
   -0.9390    2.8260   -0.9330 C   0  0  0  0  0  0  0  0  0  0  0  0
   -1.0060    6.6400   -4.9950 C   0  0  0  0  0  0  0  0  0  0  0  0
   -4.2590    1.5390   -6.6200 C   0  0  0  0  0  0  0  0  0  0  0  0
   -0.2560    1.6880   -0.5700 C   0  0  0  0  0  0  0  0  0  0  0  0
   -0.0060    6.4230    1.5160 C   0  0  0  0  0  0  0  0  0  0  0  0
    2.4890    2.3800    2.9460 C   0  0  0  0  0  0  0  0  0  0  0  0
   -0.5980    4.4590   -6.5630 C   0  0  0  0  0  0  0  0  0  0  0  0
   -2.7470    5.6140   -3.7390 C   0  0  0  0  0  0  0  0  0  0  0  0
    0.1440    5.5970   -6.7410 C   0  0  0  0  0  0  0  0  0  0  0  0
   -0.0470    6.6720   -5.9680 C   0  0  0  0  0  0  0  0  0  0  0  0
    1.3880    4.5580    2.4730 C   0  0  0  0  0  0  0  0  0  0  0  0
    0.4890    5.0490    1.5800 N   0  0  0  0  0  0  0  0  0  0  0  0
    1.6270    3.2290    2.2530 N   0  0  0  0  0  0  0  0  0  0  0  0
   -2.6750    2.1170   -6.6810 S   0  0  2  0  0  0  0  0  0  0  0  0
    0.1220    4.0230    0.7640 C   0  0  0  0  0  0  0  0  0  0  0  0
   -2.4290    3.1280   -5.4350 N   0  0  0  0  0  0  0  0  0  0  0  0
    0.8100    2.8640    1.1700 C   0  0  0  0  0  0  0  0  0  0  0  0
   -1.6550    4.3220   -5.6320 C   0  0  1  0  0  0  0  0  0  0  0  0
   -2.8450    2.6380   -4.1640 C   0  0  0  0  0  0  0  0  0  0  0  0
   -1.8080    5.4980   -4.7940 C   0  0  0  0  0  0  0  0  0  0  0  0
   -2.5610    2.7520   -7.8930 O   0  0  0  0  0  0  0  0  0  0  0  0
   -1.7620    0.9630   -6.5410 O   0  0  0  0  0  0  0  0  0  0  0  0
   -1.8610    2.8490   -1.9600 N   0  0  0  0  0  0  0  0  0  0  0  0
   -0.5810    1.9330   -3.5710 O   0  0  0  0  0  0  0  0  0  0  0  0
   -1.1570    7.8060   -4.2090 C   0  0  0  0  0  0  0  0  0  0  0  0
   -2.8600    6.7040   -2.9700 C   0  0  0  0  0  0  0  0  0  0  0  0
   -2.0840    7.8310   -3.1900 C   0  0  0  0  0  0  0  0  0  0  0  0
  5  2  1  0
  8  5  1  0
  8  3  1  0
 13 11  1  0
 14 13  1  0
 14  6  1  0
 15  4  1  0
 16 15  1  0
 16  9  1  0
 17 15  1  0
 17 10  1  0
 18  7  1  1
 19 16  1  0
 19  2  1  0
 20 18  1  0
 21 19  1  0
 21 17  1  0
 21  3  1  0
 22 11  1  0
 22 20  1  1
 23 20  1  0
 23  1  1  0
 24 22  1  0
 24 12  1  0
 24  6  1  0
 25 18  1  0
 26 18  1  0
 27  5  1  0
 27  1  1  0
  1 28  1  1
 29  6  1  0
 30 12  1  0
 31 30  1  0
 31 29  1  0
M  END
