
     RDKit          3D

 21 24  0  0  0  0  0  0  0  0999 V2000
   -3.1970    7.4300    1.2040 C   0  0  1  0  0  0  0  0  0  0  0  0
   -4.2830    8.1860    1.9040 C   0  0  0  0  0  0  0  0  0  0  0  0
   -2.9280    8.3190    2.3810 C   0  0  0  0  0  0  0  0  0  0  0  0
   -3.1580    5.9560    1.5050 C   0  0  0  0  0  0  0  0  0  0  0  0
   -3.9930    5.3140    0.6120 O   0  0  0  0  0  0  0  0  0  0  0  0
   -3.5340    5.0530   -0.6280 C   0  0  0  0  0  0  0  0  0  0  0  0
   -3.9540    5.8780   -1.6450 C   0  0  0  0  0  0  0  0  0  0  0  0
   -2.2900    3.6770   -2.1950 C   0  0  0  0  0  0  0  0  0  0  0  0
   -2.6720    3.9270   -0.8950 C   0  0  0  0  0  0  0  0  0  0  0  0
   -2.7220    4.4970   -3.2420 C   0  0  0  0  0  0  0  0  0  0  0  0
   -3.5400    5.6020   -2.9540 C   0  0  0  0  0  0  0  0  0  0  0  0
   -3.6000    6.1940   -5.0990 C   0  0  0  0  0  0  0  0  0  0  0  0
   -2.8160    5.1220   -5.3520 N   0  0  0  0  0  0  0  0  0  0  0  0
   -3.9640    6.4330   -3.9130 N   0  0  0  0  0  0  0  0  0  0  0  0
   -2.3720    4.2910   -4.5300 C   0  0  0  0  0  0  0  0  0  0  0  0
   -1.5990    3.2470   -4.9630 N   0  0  0  0  0  0  0  0  0  0  0  0
   -1.4860    1.9480   -4.3910 C   0  0  0  0  0  0  0  0  0  0  0  0
   -0.5360    1.1580   -5.2010 C   0  0  0  0  0  0  0  0  0  0  0  0
   -0.0700    1.9950   -6.3100 C   0  0  0  0  0  0  0  0  0  0  0  0
   -0.8480    3.2430   -6.2240 C   0  0  0  0  0  0  0  0  0  0  0  0
   -4.0780    7.1350   -6.1470 C   0  0  0  0  0  0  0  0  0  0  0  0
  2  1  1  0
  3  2  1  0
  3  1  1  0
  1  4  1  1
  5  4  1  0
  6  5  1  0
  7  6  1  0
  9  8  1  0
  9  6  1  0
 10  8  1  0
 11 10  1  0
 11  7  1  0
 13 12  1  0
 14 12  1  0
 14 11  1  0
 15 13  1  0
 15 10  1  0
 16 15  1  0
 17 16  1  0
 18 17  1  0
 19 18  1  0
 20 19  1  0
 20 16  1  0
 21 12  1  0
M  END
