
     RDKit          3D

 27 30  0  0  0  0  0  0  0  0999 V2000
   -1.7270   -7.0560   -0.2330 N   0  0  0  0  0  0  0  0  0  0  0  0
   -0.5080   -8.5420    1.0770 N   0  0  0  0  0  0  0  0  0  0  0  0
   -1.9750   -6.0900   -1.2970 C   0  0  0  0  0  0  0  0  0  0  0  0
   -2.9830   -7.2430    0.5360 C   0  0  0  0  0  0  0  0  0  0  0  0
    0.5310   -7.1820   -0.6040 C   0  0  0  0  0  0  0  0  0  0  0  0
   -4.0760   -6.4810   -0.2010 C   0  0  0  0  0  0  0  0  0  0  0  0
    0.6380   -9.0370    1.4440 C   0  0  0  0  0  0  0  0  0  0  0  0
    1.8150   -8.6350    0.8150 C   0  0  0  0  0  0  0  0  0  0  0  0
   -3.0870   -4.2870    0.0230 N   0  0  0  0  0  0  0  0  0  0  0  0
   -1.4500   -1.0980    0.7490 C   0  0  0  0  0  0  0  0  0  0  0  0
   -0.4930   -0.6030   -0.2440 C   0  0  2  0  0  0  0  0  0  0  0  0
   -2.3770   -3.2220   -0.3050 C   0  0  0  0  0  0  0  0  0  0  0  0
    1.4740   -0.8910   -1.6230 C   0  0  0  0  0  0  0  0  0  0  0  0
    0.3190    1.1600   -1.6620 C   0  0  0  0  0  0  0  0  0  0  0  0
   -0.5900   -7.6060    0.0790 C   0  0  0  0  0  0  0  0  0  0  0  0
   -3.3100   -5.4340   -0.9360 C   0  0  1  0  0  0  0  0  0  0  0  0
    1.7630   -7.6790   -0.2200 C   0  0  0  0  0  0  0  0  0  0  0  0
    3.3160   -9.2860    1.3140 Cl  0  0  0  0  0  0  0  0  0  0  0  0
   -2.2260   -2.1800    0.7460 C   0  0  0  0  0  0  0  0  0  0  0  0
   -1.6920   -0.4740    1.9570 C   0  0  0  0  0  0  0  0  0  0  0  0
   -2.5700   -1.1650    2.6080 N   0  0  0  0  0  0  0  0  0  0  0  0
   -2.9350   -2.2270    1.8700 N   0  0  0  0  0  0  0  0  0  0  0  0
   -3.0600   -0.8510    3.8780 C   0  0  0  0  0  0  0  0  0  0  0  0
   -1.8810   -3.0820   -1.4120 O   0  0  0  0  0  0  0  0  0  0  0  0
    0.5480   -1.3740   -0.6680 C   0  0  0  0  0  0  0  0  0  0  0  0
    1.3810    0.4120   -2.0830 N   0  0  0  0  0  0  0  0  0  0  0  0
   -0.5860    0.6880   -0.7330 C   0  0  0  0  0  0  0  0  0  0  0  0
  3  1  1  0
  4  1  1  0
  6  4  1  0
  7  2  1  0
  8  7  1  0
 11 10  1  1
 12  9  1  0
 15  5  1  0
 15  2  1  0
 15  1  1  0
 16  6  1  0
 16  3  1  0
 16  9  1  1
 17  8  1  0
 17  5  1  0
 18  8  1  0
 19 12  1  0
 19 10  1  0
 20 10  1  0
 21 20  1  0
 22 21  1  0
 22 19  1  0
 23 21  1  0
 24 12  1  0
 25 13  1  0
 25 11  1  0
 26 14  1  0
 26 13  1  0
 27 14  1  0
 27 11  1  0
M  END
